TEST

OPTIONS POST=1

.GLOBAL VDD

V1 VDD 0 DC 3.3
VA A1 0 PULSE(0.0 3.3 90n 10n 10n 190n 300n)
VB B1 0 PULSE(0.0 3.3 190n 10n 10n 290n 500n)

XNAND1 OUT1 A1 B1 MYNAND2
CLOAD OUT1 0 2P
.SUBCKT MYNAND2 OUT A B
MPA OUT A VDD VDD PCH W=3.2u L=0.4u
MPB OUT B VDD VDD PCH W=3.2u L=0.4u
MNA J A 0 0 NCH W=3.2u L=0.4u
MNB OUT B J 0 NCH W=3.2u L=0.4u
.ENDS

.model PCH PMOS LEVEL=1
.model NCH NMOS LEVEL=1

.TRAN 10n 690n

.probe
.end